examples/case_for001_testnetz13.m
function mpc = case_for001_testnetz13
%CASE_FOR001_TESTNETZ13 Converted from FOR001.DAT fixed-column dataset.
%   Conversion basis: 100 MVA. R/X are converted from Ohm using the from-side bus base kV.
%   Branch shunt B is converted from Siemens. Branch shunt G is split into bus Gs.
%   Non-zero transformer tap ratios come from the regulation cards (400/231 kV vs 400/230 kV bus base ratio).
mpc.version = '2';
mpc.baseMVA = 100;

%% bus data
% bus_i type Pd Qd Gs Bs area Vm Va baseKV zone Vmax Vmin
mpc.bus = [
   1  1   0.000000   0.000000   0.80960000   0.00000000  1  1.00000000  0.00000000   230.0000  1   1.1000   0.9000; % DELTA2S1
   2  1   0.000000   0.000000   1.48560000   0.00000000  1  1.00000000  0.00000000   230.0000  1   1.1000   0.9000; % BETA2 S1
   3  1 300.000000 100.000000   0.00000000   0.00000000  1  1.00000000  0.00000000   230.0000  1   1.1000   0.9000; % ASTADTS1
   4  1   0.000000   0.000000   0.00000000   0.00000000  1  1.00000000  0.00000000   230.0000  1   1.1000   0.9000; % NORD  S1
   5  1 200.000000  50.000000   0.00000000   0.00000000  1  1.00000000  0.00000000   230.0000  1   1.1000   0.9000; % OST   S1
   6  3   0.000000   0.000000   0.00000000   0.00000000  1  1.00000000  0.00000000   230.0000  1   1.1000   0.9000; % BSTADTS1
   7  1 150.000000  30.000000   0.00000000   0.00000000  1  1.00000000  0.00000000   230.0000  1   1.1000   0.9000; % WEILERS1
   8  1 200.000000  50.000000   0.00000000   0.00000000  1  1.00000000  0.00000000   230.0000  1   1.1000   0.9000; % BURG  S1
   9  1 300.000000 100.000000   0.00000000   0.00000000  1  1.00000000  0.00000000   230.0000  1   1.1000   0.9000; % GAMMA S1
  10  1   0.000000   0.000000   0.00000000   0.00000000  1  1.00000000  0.00000000   230.0000  1   1.1000   0.9000; % SUED  S1
  11  1 400.000000 200.000000   0.00000000   0.00000000  1  1.00000000  0.00000000   400.0000  1   1.1000   0.9000; % ALPHA S1
  12  1   0.000000   0.000000   1.48560000   0.00000000  1  1.00000000  0.00000000   400.0000  1   1.1000   0.9000; % BETA1 S1
  13  1   0.000000   0.000000   0.80960000   0.00000000  1  1.00000000  0.00000000   400.0000  1   1.1000   0.9000; % DELTA1S1
];

%% generator data
% bus Pg Qg Qmax Qmin Vg mBase status Pmax Pmin
mpc.gen = [
   2  600.000000  200.000000  200.000000  200.000000   1.000000 100.000000  1  600.000000  600.000000; % BETA2 S1
   4  100.000000   40.000000   40.000000   40.000000   1.000000 100.000000  1  100.000000  100.000000; % NORD  S1
   6  300.000000  100.000000 9999.000000 -9999.000000   1.000000 100.000000  1 9999.000000 -9999.000000; % BSTADTS1
   7  400.000000  200.000000  200.000000  200.000000   1.000000 100.000000  1  400.000000  400.000000; % WEILERS1
  10  150.000000   50.000000   50.000000   50.000000   1.000000 100.000000  1  150.000000  150.000000; % SUED  S1
];

%% branch data
% fbus tbus r x b rateA rateB rateC ratio angle status angmin angmax
mpc.branch = [
  11   13   0.0006312500   0.0060687500   2.3680000000  2639.6454  2639.6454  2639.6454   0.00000000   0.000000  1  -360.00   360.00; % L1- ALPHA S1 -> DELTA1S1
  11   12   0.0003768750   0.0033125000   1.2880000000  2639.6454  2639.6454  2639.6454   0.00000000   0.000000  1  -360.00   360.00; % L1- ALPHA S1 -> BETA1 S1
  12   13   0.0007250000   0.0062500000   2.4320000000  2639.6454  2639.6454  2639.6454   0.00000000   0.000000  1  -360.00   360.00; % L1B BETA1 S1 -> DELTA1S1
  12   13   0.0007125000   0.0061375000   2.4000000000  2639.6454  2639.6454  2639.6454   0.00000000   0.000000  1  -360.00   360.00; % L1A BETA1 S1 -> DELTA1S1
   2    8   0.0049149338   0.0206049149   0.0391989000   288.8195   288.8195   288.8195   0.00000000   0.000000  1  -360.00   360.00; % L1C BETA2 S1 -> BURG  S1
   2    8   0.0047258979   0.0206049149   0.0394105000   288.8195   288.8195   288.8195   0.00000000   0.000000  1  -360.00   360.00; % L1A BETA2 S1 -> BURG  S1
   2    8   0.0049149338   0.0206049149   0.0391989000   288.8195   288.8195   288.8195   0.00000000   0.000000  1  -360.00   360.00; % L1B BETA2 S1 -> BURG  S1
   8    9   0.0023251418   0.0098487713   0.0201020000   557.7204   557.7204   557.7204   0.00000000   0.000000  1  -360.00   360.00; % L1B BURG  S1 -> GAMMA S1
   8    9   0.0023251418   0.0098487713   0.0201020000   557.7204   557.7204   557.7204   0.00000000   0.000000  1  -360.00   360.00; % L1A BURG  S1 -> GAMMA S1
   6    5   0.0023251418   0.0098487713   0.0201020000   557.7204   557.7204   557.7204   0.00000000   0.000000  1  -360.00   360.00; % L1- BSTADTS1 -> OST   S1
   3    5   0.0023251418   0.0098487713   0.0201020000   557.7204   557.7204   557.7204   0.00000000   0.000000  1  -360.00   360.00; % L1- ASTADTS1 -> OST   S1
   1    3   0.0153119093   0.0655954631   0.1412430000   557.7204   557.7204   557.7204   0.00000000   0.000000  1  -360.00   360.00; % L1- DELTA2S1 -> ASTADTS1
   7    3   0.0011342155   0.0055576560   0.0184621000   557.7204   557.7204   557.7204   0.00000000   0.000000  1  -360.00   360.00; % L1- WEILERS1 -> ASTADTS1
   1    7   0.0024196597   0.0120226843   0.0398866000   557.7204   557.7204   557.7204   0.00000000   0.000000  1  -360.00   360.00; % L1- DELTA2S1 -> WEILERS1
   3    4   0.0024196597   0.0120226843   0.0398866000   557.7204   557.7204   557.7204   0.00000000   0.000000  1  -360.00   360.00; % L1- ASTADTS1 -> NORD  S1
   3    6   0.0025330813   0.0127032136   0.0062422000   278.8602   278.8602   278.8602   0.00000000   0.000000  1  -360.00   360.00; % L1B ASTADTS1 -> BSTADTS1
   3    6   0.0025330813   0.0127032136   0.0062422000   278.8602   278.8602   278.8602   0.00000000   0.000000  1  -360.00   360.00; % L1A ASTADTS1 -> BSTADTS1
   6    7   0.0103969754   0.0438563327   0.0846400000   557.7204   557.7204   557.7204   0.00000000   0.000000  1  -360.00   360.00; % L1- BSTADTS1 -> WEILERS1
   6    8   0.0013232514   0.0087901701   0.0290950000   557.7204   557.7204   557.7204   0.00000000   0.000000  1  -360.00   360.00; % L1- BSTADTS1 -> BURG  S1
   2    7   0.0013232514   0.0087901701   0.0290950000   557.7204   557.7204   557.7204   0.00000000   0.000000  1  -360.00   360.00; % L1- BETA2 S1 -> WEILERS1
   6   10   0.0023251418   0.0098487713   0.0201020000   557.7204   557.7204   557.7204   0.00000000   0.000000  1  -360.00   360.00; % L1B BSTADTS1 -> SUED  S1
   6   10   0.0023251418   0.0098487713   0.0201020000   557.7204   557.7204   557.7204   0.00000000   0.000000  1  -360.00   360.00; % L1A BSTADTS1 -> SUED  S1
  12    2   0.0001125000   0.0051375000  -0.0294400000  1143.1535  1143.1535  1143.1535   0.99567100   0.000000  1  -360.00   360.00; % T1C BETA1 S1 -> BETA2 S1
  12    2   0.0001125000   0.0051375000  -0.0294400000  1143.1535  1143.1535  1143.1535   0.99567100   0.000000  1  -360.00   360.00; % T1A BETA1 S1 -> BETA2 S1
  12    2   0.0001125000   0.0051375000  -0.0294400000  1143.1535  1143.1535  1143.1535   0.99567100   0.000000  1  -360.00   360.00; % T1B BETA1 S1 -> BETA2 S1
  13    1   0.0000650000   0.0051000000  -0.0161600000  1731.3580  1731.3580  1731.3580   0.99567100   0.000000  1  -360.00   360.00; % T1B DELTA1S1 -> DELTA2S1
  13    1   0.0000650000   0.0051000000  -0.0161600000  1731.3580  1731.3580  1731.3580   0.99567100   0.000000  1  -360.00   360.00; % T1A DELTA1S1 -> DELTA2S1
];

%% Optional name metadata
mpc.bus_name = {
    'DELTA2S1';
    'BETA2 S1';
    'ASTADTS1';
    'NORD  S1';
    'OST   S1';
    'BSTADTS1';
    'WEILERS1';
    'BURG  S1';
    'GAMMA S1';
    'SUED  S1';
    'ALPHA S1';
    'BETA1 S1';
    'DELTA1S1';
};
mpc.branch_name = {
    'L1- ALPHA S1 -> DELTA1S1';
    'L1- ALPHA S1 -> BETA1 S1';
    'L1B BETA1 S1 -> DELTA1S1';
    'L1A BETA1 S1 -> DELTA1S1';
    'L1C BETA2 S1 -> BURG  S1';
    'L1A BETA2 S1 -> BURG  S1';
    'L1B BETA2 S1 -> BURG  S1';
    'L1B BURG  S1 -> GAMMA S1';
    'L1A BURG  S1 -> GAMMA S1';
    'L1- BSTADTS1 -> OST   S1';
    'L1- ASTADTS1 -> OST   S1';
    'L1- DELTA2S1 -> ASTADTS1';
    'L1- WEILERS1 -> ASTADTS1';
    'L1- DELTA2S1 -> WEILERS1';
    'L1- ASTADTS1 -> NORD  S1';
    'L1B ASTADTS1 -> BSTADTS1';
    'L1A ASTADTS1 -> BSTADTS1';
    'L1- BSTADTS1 -> WEILERS1';
    'L1- BSTADTS1 -> BURG  S1';
    'L1- BETA2 S1 -> WEILERS1';
    'L1B BSTADTS1 -> SUED  S1';
    'L1A BSTADTS1 -> SUED  S1';
    'T1C BETA1 S1 -> BETA2 S1';
    'T1A BETA1 S1 -> BETA2 S1';
    'T1B BETA1 S1 -> BETA2 S1';
    'T1B DELTA1S1 -> DELTA2S1';
    'T1A DELTA1S1 -> DELTA2S1';
};
mpc.branch_kind = {
    'L';
    'L';
    'L';
    'L';
    'L';
    'L';
    'L';
    'L';
    'L';
    'L';
    'L';
    'L';
    'L';
    'L';
    'L';
    'L';
    'L';
    'L';
    'L';
    'L';
    'L';
    'L';
    'T';
    'T';
    'T';
    'T';
    'T';
};
mpc.for001_contingencies = {
    'L1- ALPHA S1 -> DELTA1S1';
    'L1- ALPHA S1 -> BETA1 S1';
    'L1B BETA1 S1 -> DELTA1S1';
    'L1A BETA1 S1 -> DELTA1S1';
    'L1C BETA2 S1 -> BURG  S1';
    'L1A BETA2 S1 -> BURG  S1';
    'L1B BETA2 S1 -> BURG  S1';
    'L1B BURG  S1 -> GAMMA S1';
    'L1A BURG  S1 -> GAMMA S1';
    'L1- BSTADTS1 -> OST   S1';
    'L1- ASTADTS1 -> OST   S1';
    'L1- DELTA2S1 -> ASTADTS1';
    'L1- WEILERS1 -> ASTADTS1';
    'L1- DELTA2S1 -> WEILERS1';
    'L1- ASTADTS1 -> NORD  S1';
    'L1B ASTADTS1 -> BSTADTS1';
    'L1A ASTADTS1 -> BSTADTS1';
    'L1- BSTADTS1 -> WEILERS1';
    'L1- BSTADTS1 -> BURG  S1';
    'L1- BETA2 S1 -> WEILERS1';
    'L1B BSTADTS1 -> SUED  S1';
    'L1A BSTADTS1 -> SUED  S1';
    'T1C BETA1 S1 -> BETA2 S1';
    'T1A BETA1 S1 -> BETA2 S1';
    'T1B BETA1 S1 -> BETA2 S1';
    'T1B DELTA1S1 -> DELTA2S1';
    'T1A DELTA1S1 -> DELTA2S1';
};
end
